*Heading
** Job name: SendIt Model name: Model-1
** Generated by: Abaqus/CAE Student Edition 2018
*Preprint, echo=NO, model=NO, history=NO, contact=NO
**
** PARTS
**
*Part, name=Plate
*Node
      1,         105.,         120.,           0.
      2,   103.535538,   123.535538,           0.
      3,         100.,         125.,           0.
      4,   96.4644623,   123.535538,           0.
      5,          95.,         120.,           0.
      6,   96.4644623,   116.464462,           0.
      7,         100.,         115.,           0.
      8,   103.535538,   116.464462,           0.
      9,          25.,         130.,           0.
     10,   23.5355339,   133.535538,           0.
     11,          20.,         135.,           0.
     12,   16.4644661,   133.535538,           0.
     13,          15.,         130.,           0.
     14,   16.4644661,   126.464462,           0.
     15,          20.,         125.,           0.
     16,   23.5355339,   126.464462,           0.
     17,         205.,          20.,           0.
     18,   203.535538,   23.5355339,           0.
     19,         200.,          25.,           0.
     20,   196.464462,   23.5355339,           0.
** ... 926 like lines cut
*Element, type=C3D8R
  1, 126, 101,   1,  95, 599, 574, 474, 568
  2,   2,  90, 112,  89, 475, 563, 585, 562
  3, 103,   5,   4,  74, 576, 478, 477, 547
  4, 389, 109, 168, 181, 862, 582, 641, 654
  5, 106,  75,  11,  10, 579, 548, 484, 483
  6, 393,  76,   9, 118, 866, 549, 482, 591
  7, 391,  77,   5, 103, 864, 550, 478, 576
  8,   7,   6, 113,  78, 480, 479, 586, 551
  9,  78, 100,  94,   7, 551, 573, 567, 480
 10, 395, 169, 138,  79, 868, 642, 611, 552
 11, 169, 407, 420, 183, 642, 880, 893, 656
 12, 414,  80,  22,  79, 887, 553, 495, 552
 13, 415, 104, 414, 416, 888, 577, 887, 889
 14, 176, 144, 124, 158, 649, 617, 597, 631
 15, 403,  32,  31, 117, 876, 505, 504, 590
 16,  30,  81, 108, 402, 503, 554, 581, 875
 17,  84,  81,  30,  29, 557, 554, 503, 502
 18, 115,  82,  14,  13, 588, 555, 487, 486
 19, 181,  54,  53, 389, 654, 527, 526, 862
 20, 389,  53, 105,  83, 862, 526, 578, 556
** ... 420 like lines cut
*Nset, nset=_PickedSet6, internal, generate
   1,  946,    1
*Elset, elset=_PickedSet6, internal, generate
   1,  440,    1
** Section: Main
*Solid Section, elset=_PickedSet6, material=Acrylic
,
*End Part
**  
**
** ASSEMBLY
**
*Assembly, name=Assembly
**  
*Instance, name=Plate-1, part=Plate
*End Instance
**  
*Nset, nset=StaticPins, instance=Plate-1
   9,  10,  11,  12,  13,  14,  15,  16,  17,  18,  19,  20,  21,  22,  23,  24
  25,  26,  27,  28,  29,  30,  31,  32, 482, 483, 484, 485, 486, 487, 488, 489
 490, 491, 492, 493, 494, 495, 496, 497, 498, 499, 500, 501, 502, 503, 504, 505
*Elset, elset=StaticPins, instance=Plate-1
   5,  15,  17,  18,  28,  29,  33,  35,  39,  40,  42,  44,  46,  47,  58,  60
  63,  64,  69,  73,  74,  83, 408, 412
*Nset, nset=_PickedSet5, internal, instance=Plate-1
   1,   2,   3,   4,   5,   6,   7,   8, 474, 475, 476, 477, 478, 479, 480, 481
*Elset, elset=_PickedSet5, internal, instance=Plate-1
  3,  8, 23, 24, 51, 67, 72, 85
*End Assembly
** 
** MATERIALS
** 
*Material, name=Acrylic
*Density
1190.,
*Elastic
 2.8e+09, 0.35
*Plastic
 6.9e+07,  0.
   7e+07, 0.1
** ----------------------------------------------------------------
** 
** STEP: StepUno
** 
*Step, name=StepUno, nlgeom=NO
*Static
1., 1., 1e-05, 1.
** 
** BOUNDARY CONDITIONS
** 
** Name: BC-2 Type: Displacement/Rotation
*Boundary
_PickedSet5, 2, 2, 7.
** Name: PinsABC Type: Displacement/Rotation
*Boundary
StaticPins, 1, 1
StaticPins, 2, 2
StaticPins, 3, 3
StaticPins, 4, 4
StaticPins, 5, 5
** 
** OUTPUT REQUESTS
** 
*Restart, write, frequency=0
** 
** FIELD OUTPUT: F-Output-1
** 
*Output, field, variable=PRESELECT
** 
** HISTORY OUTPUT: H-Output-1
** 
*Output, history, variable=PRESELECT
*End Step
